/*--------------------------------*- C++ -*----------------------------------*\
|       o          |                                                          |
|    o     o       | HELYX-OS                                                  |
|   o   O   o      | Version: v2.2.0                                           |
|    o     o       | Web:     http://www.engys.com                            |
|       o          |                                                          |
\*---------------------------------------------------------------------------*/
FoamFile
{
    version 2.0;
    format ascii;
    class volVectorField;
    location "0";
    object U;
}
dimensions [ 0 1 -1 0 0 0 0 ];
internalField uniform (0.0 0.0 0.0);
boundaryField
{
    ffminx
    {
        type fixedValue;
        value uniform ( 0 0 0);
    }

    ffmaxx
    {
        type fixedValue;
        value uniform ( 0 0 0);
    }

    ffminy
    {
        type fixedValue;
        value uniform ( 0 0 0);
    }

    ffmaxy
    {
        type fixedValue;
        value uniform ( 0 0 0);
    }

    symmetryPlane
    {
        type symmetry;
    }

    ffmaxz
    {
        type fixedValue;
        value uniform ( 0 0 0);
    }

    inletBig
    {
        type flowRateInletVelocity;
        value uniform (0 0 0);
        volumetricFlowRate constant 3.926991E-4;
    }

    inletSmall
    {
        type flowRateInletVelocity;
        value uniform (0 0 0);
        volumetricFlowRate constant 1.963495E-4;
    }

    outlet
    {
        type pressureInletOutletVelocity;
        value uniform ( 0 0 0);
    }

    wall
    {
        type fixedValue;
        value uniform ( 0 0 0);
    }

    procBoundary0to1
    {
        type processor;
        value uniform ( 0 0 0);
    }

    procBoundary1to0
    {
        type processor;
        value uniform ( 0 0 0);
    }

}
