/*--------------------------------*- C++ -*----------------------------------*\
|       o          |                                                          |
|    o     o       | HELYX-OS                                                  |
|   o   O   o      | Version: v2.2.0                                           |
|    o     o       | Web:     http://www.engys.com                            |
|       o          |                                                          |
\*---------------------------------------------------------------------------*/
FoamFile
{
    version 2.0;
    format ascii;
    class volScalarField;
    location "0";
    object k;
}
dimensions [ 0 2 -2 0 0 0 0 ];
internalField uniform 0.1;
boundaryField
{
    ffminx
    {
        type kqRWallFunction;
        value uniform 1e-20;
    }

    ffmaxx
    {
        type kqRWallFunction;
        value uniform 1e-20;
    }

    ffminy
    {
        type kqRWallFunction;
        value uniform 1e-20;
    }

    ffmaxy
    {
        type kqRWallFunction;
        value uniform 1e-20;
    }

    symmetryPlane
    {
        type symmetry;
    }

    ffmaxz
    {
        type kqRWallFunction;
        value uniform 1e-20;
    }

    inletBig
    {
        type inletOutlet;
        value uniform 0.1;
        inletValue uniform 0.01;
    }

    inletSmall
    {
        type inletOutlet;
        value uniform 0.1;
        inletValue uniform 0.01;
    }

    outlet
    {
        type zeroGradient;
    }

    wall
    {
        type kqRWallFunction;
        value uniform 1e-20;
    }

    procBoundary0to1
    {
        type processor;
        value uniform 0.1;
    }

    procBoundary1to0
    {
        type processor;
        value uniform 0.1;
    }

}
